[Format]      =  4.0
[Frequency]   =  0
[Precision]   =  1e-008
[MinAngle]    =  30
[Depth]       =  8
[LengthUnits] =  centimeters
[ProblemType] =  planar
[Coordinates] =  cartesian
[ACSolver]    =  0
[Comment]     =  "Add comments here."
[PointProps]   = 0
[BdryProps]   = 2
  <BeginBdry>
    <BdryName> = "BoundaryCondition"
    <BdryType> = 0
    <A_0> = 0
    <A_1> = 0
    <A_2> = 0
    <Phi> = 0
    <c0> = 0
    <c0i> = 0
    <c1> = 0
    <c1i> = 0
    <Mu_ssd> = 0
    <Sigma_ssd> = 0
  <EndBdry>
  <BeginBdry>
    <BdryName> = "New Boundary"
    <BdryType> = 0
    <A_0> = 0
    <A_1> = 0
    <A_2> = 0
    <Phi> = 0
    <c0> = 0
    <c0i> = 0
    <c1> = 0
    <c1i> = 0
    <Mu_ssd> = 0
    <Sigma_ssd> = 0
  <EndBdry>
[BlockProps]  = 5
  <BeginBlock>
    <BlockName> = "Air"
    <Mu_x> = 1
    <Mu_y> = 1
    <H_c> = 0
    <H_cAngle> = 0
    <J_re> = 0
    <J_im> = 0
    <Sigma> = 0
    <d_lam> = 0
    <Phi_h> = 0
    <Phi_hx> = 0
    <Phi_hy> = 0
    <LamType> = 0
    <LamFill> = 1
    <NStrands> = 0
    <WireD> = 0
    <BHPoints> = 0
  <EndBlock>
  <BeginBlock>
    <BlockName> = "24 SWG"
    <Mu_x> = 1
    <Mu_y> = 1
    <H_c> = 0
    <H_cAngle> = 0
    <J_re> = 0
    <J_im> = 0
    <Sigma> = 58
    <d_lam> = 0
    <Phi_h> = 0
    <Phi_hx> = 0
    <Phi_hy> = 0
    <LamType> = 3
    <LamFill> = 1
    <NStrands> = 1
    <WireD> = 0.55879999999999996
    <BHPoints> = 0
  <EndBlock>
  <BeginBlock>
    <BlockName> = "Steel castings, as cast"
    <Mu_x> = 1
    <Mu_y> = 1
    <H_c> = 0
    <H_cAngle> = 0
    <J_re> = 0
    <J_im> = 0
    <Sigma> = 6.2060000000000004
    <d_lam> = 0
    <Phi_h> = 0
    <Phi_hx> = 0
    <Phi_hy> = 0
    <LamType> = 0
    <LamFill> = 1
    <NStrands> = 0
    <WireD> = 0
    <BHPoints> = 28
      0	0
      0.22194987077241227	225.36666666666662
      0.24551488758529641	237.31666666666666
      0.34430334498361326	291.79333333333329
      0.37557345630905609	310.45000000000005
      0.45441746007971556	358.73000000000002
      0.62798140744099151	483.88999999999999
      0.67013362301234491	520.13666666666666
      0.86145272806437279	723.67333333333329
      1.0751796105051517	1071.3333333333333
      1.2410736322807892	1570.5666666666666
      1.4233877961640156	2775.5
      1.6562382506561981	6290.5333333333328
      1.6866257903981818	7049.8666666666659
      1.8135052258220372	12338.666666666666
      1.9644220856887178	26304.666666666664
      1.9790826105195667	28581
      2.0124329223816582	36287
      2.0213369102903727	39022.333333333328
      2.0335027505427044	43292.333333333328
      2.0509732689380429	50590
      2.0520705255188347	51118.333333333328
      2.1919831125116627	134313.33333333331
      2.1973280088129705	138566.66666666666
      2.2408245247605874	168803.33333333331
      2.3097290616994943	223476.66666666666
      2.3277953138527376	237853.33333333331
      2.4357836825104187	321480
  <EndBlock>
  <BeginBlock>
    <BlockName> = "1020 Steel"
    <Mu_x> = 760
    <Mu_y> = 760
    <H_c> = 0
    <H_cAngle> = 0
    <J_re> = 0
    <J_im> = 0
    <Sigma> = 5.7999999999999998
    <d_lam> = 0
    <Phi_h> = 20
    <Phi_hx> = 0
    <Phi_hy> = 0
    <LamType> = 0
    <LamFill> = 1
    <NStrands> = 0
    <WireD> = 0
    <BHPoints> = 38
      0	0
      0.16625200000000001	79.577472
      0.20872499999999999	100.182101
      0.26163500000000001	126.121793
      0.32714599999999999	158.77793
      0.407495	199.88957099999999
      0.50460400000000005	251.646061
      0.61936599999999997	316.80362000000002
      0.750502	398.83212800000001
      0.89319499999999996	502.09990099999999
      1.0382579999999999	632.10632499999997
      1.173276	795.77471500000001
      1.2867310000000001	1001.821011
      1.3735329999999999	1261.2179289999999
      1.4376580000000001	1587.779301
      1.4891890000000001	1998.89571
      1.5383439999999999	2516.4606050000002
      1.591321	3168.036204
      1.6497230000000001	3988.3212819999999
      1.711927	5020.9990129999996
      1.7747120000000001	6321.0632500000002
      1.8349759999999999	7957.747155
      1.8914420000000001	10018.210114
      1.945262	12612.179292999999
      1.998705	15877.793009999999
      2.0528520000000001	19988.957103000001
      2.1061839999999998	25164.606051999999
      2.1551490000000002	31680.362036999999
      2.1963750000000002	39883.212823000002
      2.2290079999999999	50209.990126999997
      2.2554500000000002	63210.632496999999
      2.2800530000000001	79577.471546000001
      2.3071359999999999	100182.101136
      2.3399749999999999	126121.79292599999
      2.3810440000000002	158777.930096
      2.4327079999999999	199889.57102999999
      2.4977480000000001	251646.06052200001
      2.5796269999999999	316803.62037000002
  <EndBlock>
  <BeginBlock>
    <BlockName> = "M-19 Steel"
    <Mu_x> = 4416
    <Mu_y> = 4416
    <H_c> = 0
    <H_cAngle> = 0
    <J_re> = 0
    <J_im> = 0
    <Sigma> = 1.8999999999999999
    <d_lam> = 0.63500000000000001
    <Phi_h> = 0
    <Phi_hx> = 0
    <Phi_hy> = 0
    <LamType> = 0
    <LamFill> = 0.97999999999999998
    <NStrands> = 0
    <WireD> = 0
    <BHPoints> = 47
      0	0
      0.050000000000000003	15.120714
      0.10000000000000001	22.718292000000002
      0.14999999999999999	27.842732999999999
      0.20000000000000001	31.871434000000001
      0.25	35.365043999999997
      0.29999999999999999	38.600588000000002
      0.34999999999999998	41.736201999999999
      0.40000000000000002	44.873978999999999
      0.45000000000000001	48.087806999999998
      0.5	51.437235999999999
      0.55000000000000004	54.975220999999998
      0.59999999999999998	58.752992999999996
      0.65000000000000002	62.823644000000002
      0.69999999999999996	67.245284999999996
      0.75	72.084406000000001
      0.80000000000000004	77.420100000000005
      0.84999999999999998	83.350020999999998
      0.90000000000000002	89.999611999999999
      0.94999999999999996	97.537352999999996
      1	106.20140600000001
      1.05	116.34846400000001
      1.1000000000000001	128.54732899999999
      1.1499999999999999	143.76543100000001
      1.2	163.75416899999999
      1.25	191.86815799999999
      1.3	234.833507
      1.3500000000000001	306.50976900000001
      1.3999999999999999	435.255202
      1.45	674.911968
      1.5	1108.3255690000001
      1.55	1813.085468
      1.6000000000000001	2801.2174209999998
      1.6499999999999999	4053.6531169999998
      1.7	5591.10689
      1.75	7448.318413
      1.8	9708.81567
      1.8500000000000001	12486.931615
      1.8999999999999999	16041.483644
      1.95	21249.420623999998
      2	31313.495878000002
      2.0499999999999998	53589.446877000002
      2.1000000000000001	88477.484601000004
      2.1499999999999999	124329.41054
      2.2000000000000002	159968.5693
      2.25	197751.604272
      2.2999999999999998	234024.75134700001
  <EndBlock>
[CircuitProps]  = 4
  <BeginCircuit>
    <CircuitName> = "CircuitB"
    <TotalAmps_re> = 0
    <TotalAmps_im> = 0
    <CircuitType> = 1
  <EndCircuit>
  <BeginCircuit>
    <CircuitName> = "CircuitC"
    <TotalAmps_re> = 0
    <TotalAmps_im> = 0
    <CircuitType> = 1
  <EndCircuit>
  <BeginCircuit>
    <CircuitName> = "CircuitD"
    <TotalAmps_re> = 0
    <TotalAmps_im> = 0
    <CircuitType> = 1
  <EndCircuit>
  <BeginCircuit>
    <CircuitName> = "CircuitA"
    <TotalAmps_re> = 1.5
    <TotalAmps_im> = 0
    <CircuitType> = 1
  <EndCircuit>
[NumPoints] = 109
0	0	0	0
-0.069830182323962361	0.89728688034356396	0	0
0.069830182323962361	-0.89728688034356396	0	0
0	4.5499999999999998	0	0
0	-4.5499999999999998	0	0
-0.41772999999999999	2.3988999999999998	0	0
1.4009	1.991657	0	0
-1.4008987416833523	1.9916581730934653	0	0
-1.991658173093465	1.4008987416833525	0	0
-2.3989000000000003	-0.4177299999999996	0	0
-1.9916581730934655	-1.400898741683352	0	0
-1.4008987416833529	-1.991658173093465	0	0
0.41772999999999927	-2.3989000000000003	0	0
2.3989000000000003	0.41772999999999894	0	0
0	6.5	0	0
0	-6.5	0	0
0.93000000000000005	2.25	0	0
1.25	3.1099999999999999	0	0
-0.93338095116624265	2.2485995641732215	0	0
-1.3152186130069783	3.0829855659733472	0	0
-2.25	0.93000000000000038	0	0
-2.2485995641732215	-0.93338095116624242	0	0
-3.0829855659733472	-1.3152186130069774	0	0
-1.2500000000000009	-3.109999999999999	0	0
1.3152186130069767	-3.0829855659733472	0	0
2.2485995641732219	0.9333809511662422	0	0
1.9879501708556497	1.4061556209372208	0	0
0.41139087150469655	2.3999952214412748	0	0
3.0829855659733472	1.3152186130069783	0	0
2.3999952214412748	-0.41139087150469622	0	0
1.9916581730934648	-1.4008987416833532	0	0
2.2500000000000004	-0.93000000000000083	0	0
3.1099999999999999	-1.2499999999999998	0	0
1.406155620937221	-1.9879501708556493	0	0
0.9333809511662422	-2.2485995641732215	0	0
-0.41139087150469589	-2.3999952214412748	0	0
-2.8001428534987278	-1.8667619023324853	0	0
-2.5455844122715714	-1.9516147160748711	0	0
-3.2951176003293119	-0.70710678118654724	0	0
-3.2000000000000002	-0.41999999999999998	0	0
-2	-2.5699999999999998	0	0
-1.95	-2.7599999999999998	0	0
-0.63	-3.2999999999999998	0	0
-0.41999999999999998	-3.25	0	0
0.41999999999999998	-3.2000000000000002	0	0
0.58999999999999997	-3.3300000000000001	0	0
1.8999999999999999	-2.7599999999999998	0	0
1.98	-2.5600000000000001	0	0
2.5600000000000001	-1.96	0	0
2.7599999999999998	-1.9299999999999999	0	0
3.1800000000000002	-0.44	0	0
3.3300000000000001	-0.57999999999999996	0	0
2.7400000000000002	1.95	0	0
2.5600000000000001	1.98	0	0
3.1800000000000002	0.41999999999999998	0	0
3.3300000000000001	0.57999999999999996	0	0
0.57999999999999996	3.3300000000000001	0	0
0.41999999999999998	3.2200000000000002	0	0
2.0099999999999998	2.5899999999999999	0	0
2.0099999999999998	2.73	0	0
-0.63	3.3199999999999998	0	0
-0.40999999999999998	3.1800000000000002	0	0
-1.96	2.7599999999999998	0	0
-1.96	2.5699999999999998	0	0
-1.5986030819102501	0.073267909123750363	0	0
-1.5599820844806587	-0.34793087833599917	0	0
-0.87620920468864827	-1.3267846206597012	0	0
-0.53093565111313556	-1.5061896741039613	0	0
0.73184923215167186	-1.4203157048344284	0	0
1.0682203182787098	-1.1893297909397706	0	0
1.1987137374382764	-1.1728535184229683	0	0
1.6650610594590465	-0.20511379347407718	0	0
1.597791602795793	-0.10325693214295711	0	0
1.5599820844806587	0.34793087833599917	0	0
1.6132097059705355	0.46653450522209167	0	0
1.0169694578928141	1.35298674114479	0	0
0.87647969772682355	1.3367809616661324	0	0
0.41395498245597107	1.6193953416322417	0	0
0.49149127316379859	1.5272643282693583	0	0
-0.65808794257270808	1.5583710276570246	0	0
-0.70131922305615413	1.4394969077327517	0	0
-1.0784871523232384	1.1796039429715146	0	0
-0.88983242636373194	0.13490090063347104	0	0
0.85319102389919887	0.28647002764322804	0	0
-1.2106355862495963	1.1638133343910377	0	0
-1.6802056177613214	0.20422801483565908	0	0
-1.6285088016317306	-0.40995009819288875	0	0
-1.0169694578928163	-1.3529867411447918	0	0
-0.40257411972093643	-1.6303478396131486	0	0
0.66323615986851248	-1.5572147559804514	0	0
-0.93999999999999995	-2.27	0	0
-3.1099999999999999	1.2500000000000002	0	0
-3.2200000000000002	0.42000000000000021	0	0
-2.5899999999999999	2.0099999999999998	0	0
-2.3988999999999998	0.41773000000000016	0	0
-2.7930717856868625	1.9021172413918128	0	0
-3.337544007200504	0.56568542494923824	0	0
-1.8723983873684387	1.5178353925839743	0	0
-2.3218749507631178	0.64699050458207719	0	0
-2.2506832024250909	-0.86262687317410658	0	0
-1.7212476883569598	-1.6873074394805616	0	0
-0.37828481505663547	-2.3804622657580952	0	0
0.60062726240615438	-2.3342979440626115	0	0
1.8723983873684311	-1.5178353925839692	0	0
2.3218749507631147	-0.64699050458208407	0	0
2.2506832024250958	0.86262687317410114	0	0
1.7212476883569579	1.6873074394805578	0	0
-0.60015619789906327	2.324309045313016	0	0
0.35830701755737937	2.3795201367438916	0	0
[NumSegments] = 41
5	61	-1	0	0	0
9	39	-1	0	0	0
12	44	-1	0	0	0
17	16	-1	0	0	0
19	18	-1	0	0	0
25	28	-1	0	0	0
13	54	-1	0	0	0
30	48	-1	0	0	0
33	47	-1	0	0	0
35	43	-1	0	0	0
31	32	-1	0	0	0
38	22	-1	0	0	0
36	22	-1	0	0	0
53	26	-1	0	0	0
57	27	-1	0	0	0
58	6	-1	0	0	0
63	7	-1	0	0	0
46	24	-1	0	0	0
29	50	-1	0	0	0
10	37	-1	0	0	0
80	79	-1	0	0	1
77	78	-1	0	0	1
76	75	-1	0	0	1
74	73	-1	0	0	1
69	70	-1	0	0	1
72	71	-1	0	0	1
84	81	-1	0	0	1
85	64	-1	0	0	1
65	86	-1	0	0	0
66	87	-1	0	0	1
67	88	-1	0	0	1
68	89	-1	0	0	1
34	24	-1	0	0	0
90	23	-1	0	0	0
40	11	-1	0	0	0
21	22	-1	0	0	0
91	20	-1	0	0	0
93	8	-1	0	0	0
94	92	-1	0	0	0
95	91	-1	0	0	0
91	96	-1	0	0	0
[NumArcSegments] = 83
1	82	76.929454444341587	1	0	0	1
2	83	104.1101490589724	1	0	0	1
4	3	180	1	0	0	0
15	14	180	1	1	0	0
14	15	180	1	1	0	0
6	16	12.664606054405574	1	0	0	0
5	18	12.664606054405574	1	0	0	0
26	6	19.604631163976478	1	0	0	0
27	5	19.604631163976478	1	0	0	0
13	25	12.664606054405574	1	0	0	0
29	13	19.604631163976478	1	0	0	0
30	31	12.664606054405574	1	0	0	0
33	30	19.604631163976478	1	0	0	0
31	29	12.622	1	0	0	0
25	26	12.622	1	0	0	0
19	62	10.50588585106661	1	0	0	0
16	27	12.622	1	0	0	0
17	56	10.287625990686085	1	0	0	0
23	42	9.4821784465076764	1	0	0	0
32	51	10.287625990686085	1	0	0	0
28	52	10.552225260046946	1	0	0	0
41	23	10.503526853680611	1	0	0	0
45	24	10.277115519741333	1	0	0	0
49	32	10.276058923263511	1	0	0	0
55	28	10.407549262467461	1	0	0	0
59	17	11.396491645435368	1	0	0	0
60	19	9.7252380395977287	1	0	0	0
46	47	90	1	0	0	0
48	49	90	1	0	0	0
51	50	90	1	0	0	0
54	55	90	1	0	0	0
52	53	90	1	0	0	0
58	59	90	1	0	0	0
56	57	90	1	0	0	0
64	65	14.26781095901271	1	0	0	1
66	67	13.153444299576607	1	0	0	1
68	69	13.768984899018623	1	0	0	1
72	73	15.276005337054151	1	0	0	1
76	78	14.470085333249973	1	0	0	1
80	81	15.454464196388043	1	0	0	1
82	2	103.07054555565841	1	0	0	1
83	1	75.889850941027618	1	0	0	1
12	34	12.589785555888875	1	0	0	0
34	33	12.654614444111125	1	0	0	0
35	12	19.756	1	0	0	0
3	4	180	1	0	0	0
90	35	12.622	1	0	0	0
11	90	12.622	1	0	0	0
9	21	12.622	1	0	0	0
10	11	19.756	1	0	0	0
42	43	30	1	0	0	0
40	41	30	1	0	0	0
36	37	30	1	0	0	0
39	38	30	1	0	0	0
21	10	12.622	1	0	0	0
61	60	30	1	0	0	0
62	63	30	1	0	0	0
44	45	30	1	0	0	0
8	20	12.622	1	0	0	0
18	7	12.622	1	0	0	0
7	8	19.756	1	0	0	0
20	94	12.622	1	0	0	0
94	9	19.756	1	0	0	0
93	95	30	1	0	0	0
96	92	30	1	0	0	0
84	97	10	1	0	0	1
98	85	10	1	0	0	1
102	89	10	1	0	0	1
88	101	10	1	0	0	1
86	99	10	1	0	0	1
100	87	10	1	0	0	1
70	103	10	1	0	0	1
104	71	10	1	0	0	1
106	75	10	1	0	0	1
74	105	10	1	0	0	1
101	102	28.465	1	0	0	1
103	104	28.465	1	0	0	1
105	106	28.465	1	0	0	1
97	98	28.465	1	0	0	1
99	100	28.465	1	0	0	1
77	108	12	1	0	0	1
107	79	12	1	0	0	1
108	107	28	1	0	0	1
[NumHoles] = 0
[NumBlockLabels] = 21
-0.80000000000000004	5.7999999999999998	1	-1	0	0	0	1	0
0.26030108104565403	0.52176943874330362	4	-1	0	0	1	1	0
-0.26000000000000001	4.0899999999999999	5	-1	0	0	0	1	0
-0.73999999999999999	-2.8199999999999998	2	-1	4	0	0	100	0
-1.55	-2.4900000000000002	2	-1	1	0	4	-100	0
-2.5	-1.54	2	-1	1	0	4	100	0
-3.04	-0.69999999999999996	2	-1	2	0	3	-100	0
-2.9900000000000002	0.73999999999999999	2	-1	2	0	3	100	0
-2.5099999999999998	1.6799999999999999	2	-1	3	0	2	-100	0
-1.5700000000000001	2.4399999999999999	2	-1	3	0	2	100	0
-0.79000000000000004	2.6699999999999999	2	-1	4	0	0	100	0
0.72999999999999998	2.9100000000000001	2	-1	4	0	0	-100	0
1.52	2.5699999999999998	2	-1	1	0	4	100	0
3.0099999999999998	0.62	2	-1	2	0	3	100	0
2.8900000000000001	-0.62	2	-1	2	0	3	-100	0
2.6600000000000001	-1.6299999999999999	2	-1	3	0	2	100	0
1.3200000000000001	-2.4900000000000002	2	-1	3	0	2	-100	0
0.82999999999999996	-2.77	2	-1	4	0	0	-100	0
-0.011303902193931764	-1.2049781001310009	5	-1	0	0	1	1	0
2.3199999999999998	1.51	2	-1	1	0	0	-100	0
1.6299999999999999	-1.6499999999999999	1	-1	0	0	0	1	0
